* NGSPICE file created from timer_pwm_interface.ext - technology: sky130A

* Black-box entry subcircuit for sky130_fd_sc_hd__decap_4 abstract view
.subckt sky130_fd_sc_hd__decap_4 VGND VNB VPB VPWR
.ends

* Black-box entry subcircuit for sky130_ef_sc_hd__decap_12 abstract view
.subckt sky130_ef_sc_hd__decap_12 VPWR VGND VPB VNB
.ends

* Black-box entry subcircuit for sky130_fd_sc_hd__mux2_1 abstract view
.subckt sky130_fd_sc_hd__mux2_1 A0 A1 S VGND VNB VPB VPWR X
.ends

* Black-box entry subcircuit for sky130_fd_sc_hd__fill_1 abstract view
.subckt sky130_fd_sc_hd__fill_1 VGND VNB VPB VPWR
.ends

* Black-box entry subcircuit for sky130_fd_sc_hd__decap_6 abstract view
.subckt sky130_fd_sc_hd__decap_6 VGND VNB VPB VPWR
.ends

* Black-box entry subcircuit for sky130_fd_sc_hd__dfrtp_1 abstract view
.subckt sky130_fd_sc_hd__dfrtp_1 CLK D RESET_B VGND VNB VPB VPWR Q
.ends

* Black-box entry subcircuit for sky130_fd_sc_hd__inv_2 abstract view
.subckt sky130_fd_sc_hd__inv_2 A VGND VNB VPB VPWR Y
.ends

* Black-box entry subcircuit for sky130_fd_sc_hd__decap_8 abstract view
.subckt sky130_fd_sc_hd__decap_8 VGND VNB VPB VPWR
.ends

* Black-box entry subcircuit for sky130_fd_sc_hd__tapvpwrvgnd_1 abstract view
.subckt sky130_fd_sc_hd__tapvpwrvgnd_1 VGND VPWR
.ends

* Black-box entry subcircuit for sky130_fd_sc_hd__decap_3 abstract view
.subckt sky130_fd_sc_hd__decap_3 VGND VNB VPB VPWR
.ends

* Black-box entry subcircuit for sky130_fd_sc_hd__o22a_1 abstract view
.subckt sky130_fd_sc_hd__o22a_1 A1 A2 B1 B2 VGND VNB VPB VPWR X
.ends

* Black-box entry subcircuit for sky130_fd_sc_hd__fill_2 abstract view
.subckt sky130_fd_sc_hd__fill_2 VGND VNB VPB VPWR
.ends

* Black-box entry subcircuit for sky130_fd_sc_hd__buf_1 abstract view
.subckt sky130_fd_sc_hd__buf_1 A VGND VNB VPB VPWR X
.ends

* Black-box entry subcircuit for sky130_fd_sc_hd__nand2_2 abstract view
.subckt sky130_fd_sc_hd__nand2_2 A B VGND VNB VPB VPWR Y
.ends

* Black-box entry subcircuit for sky130_fd_sc_hd__dfstp_1 abstract view
.subckt sky130_fd_sc_hd__dfstp_1 CLK D SET_B VGND VNB VPB VPWR Q
.ends

* Black-box entry subcircuit for sky130_fd_sc_hd__a21oi_1 abstract view
.subckt sky130_fd_sc_hd__a21oi_1 A1 A2 B1 VGND VNB VPB VPWR Y
.ends

* Black-box entry subcircuit for sky130_fd_sc_hd__o2111a_1 abstract view
.subckt sky130_fd_sc_hd__o2111a_1 A1 A2 B1 C1 D1 VGND VNB VPB VPWR X
.ends

* Black-box entry subcircuit for sky130_fd_sc_hd__and2_2 abstract view
.subckt sky130_fd_sc_hd__and2_2 A B VGND VNB VPB VPWR X
.ends

* Black-box entry subcircuit for sky130_fd_sc_hd__o21ai_1 abstract view
.subckt sky130_fd_sc_hd__o21ai_1 A1 A2 B1 VGND VNB VPB VPWR Y
.ends

* Black-box entry subcircuit for sky130_fd_sc_hd__xor2_1 abstract view
.subckt sky130_fd_sc_hd__xor2_1 A B VGND VNB VPB VPWR X
.ends

* Black-box entry subcircuit for sky130_fd_sc_hd__o22ai_1 abstract view
.subckt sky130_fd_sc_hd__o22ai_1 A1 A2 B1 B2 VGND VNB VPB VPWR Y
.ends

* Black-box entry subcircuit for sky130_fd_sc_hd__and2b_1 abstract view
.subckt sky130_fd_sc_hd__and2b_1 A_N B VGND VNB VPB VPWR X
.ends

* Black-box entry subcircuit for sky130_fd_sc_hd__nand2_4 abstract view
.subckt sky130_fd_sc_hd__nand2_4 A B VGND VNB VPB VPWR Y
.ends

* Black-box entry subcircuit for sky130_fd_sc_hd__nor4b_1 abstract view
.subckt sky130_fd_sc_hd__nor4b_1 A B C D_N VGND VNB VPB VPWR Y
.ends

* Black-box entry subcircuit for sky130_fd_sc_hd__nand2_1 abstract view
.subckt sky130_fd_sc_hd__nand2_1 A B VGND VNB VPB VPWR Y
.ends

* Black-box entry subcircuit for sky130_fd_sc_hd__nand2b_1 abstract view
.subckt sky130_fd_sc_hd__nand2b_1 A_N B VGND VNB VPB VPWR Y
.ends

* Black-box entry subcircuit for sky130_fd_sc_hd__and4b_4 abstract view
.subckt sky130_fd_sc_hd__and4b_4 A_N B C D VGND VNB VPB VPWR X
.ends

* Black-box entry subcircuit for sky130_fd_sc_hd__bufinv_16 abstract view
.subckt sky130_fd_sc_hd__bufinv_16 A VGND VNB VPB VPWR Y
.ends

* Black-box entry subcircuit for sky130_fd_sc_hd__o21a_1 abstract view
.subckt sky130_fd_sc_hd__o21a_1 A1 A2 B1 VGND VNB VPB VPWR X
.ends

* Black-box entry subcircuit for sky130_fd_sc_hd__o211ai_1 abstract view
.subckt sky130_fd_sc_hd__o211ai_1 A1 A2 B1 C1 VGND VNB VPB VPWR Y
.ends

* Black-box entry subcircuit for sky130_fd_sc_hd__nor2_1 abstract view
.subckt sky130_fd_sc_hd__nor2_1 A B VGND VNB VPB VPWR Y
.ends

* Black-box entry subcircuit for sky130_fd_sc_hd__clkbuf_4 abstract view
.subckt sky130_fd_sc_hd__clkbuf_4 A VGND VNB VPB VPWR X
.ends

* Black-box entry subcircuit for sky130_fd_sc_hd__a221o_1 abstract view
.subckt sky130_fd_sc_hd__a221o_1 A1 A2 B1 B2 C1 VGND VNB VPB VPWR X
.ends

* Black-box entry subcircuit for sky130_fd_sc_hd__a21o_1 abstract view
.subckt sky130_fd_sc_hd__a21o_1 A1 A2 B1 VGND VNB VPB VPWR X
.ends

* Black-box entry subcircuit for sky130_fd_sc_hd__and2_1 abstract view
.subckt sky130_fd_sc_hd__and2_1 A B VGND VNB VPB VPWR X
.ends

* Black-box entry subcircuit for sky130_fd_sc_hd__clkbuf_8 abstract view
.subckt sky130_fd_sc_hd__clkbuf_8 A VGND VNB VPB VPWR X
.ends

* Black-box entry subcircuit for sky130_fd_sc_hd__o2bb2ai_1 abstract view
.subckt sky130_fd_sc_hd__o2bb2ai_1 A1_N A2_N B1 B2 VGND VNB VPB VPWR Y
.ends

* Black-box entry subcircuit for sky130_fd_sc_hd__a41o_1 abstract view
.subckt sky130_fd_sc_hd__a41o_1 A1 A2 A3 A4 B1 VGND VNB VPB VPWR X
.ends

* Black-box entry subcircuit for sky130_fd_sc_hd__clkbuf_16 abstract view
.subckt sky130_fd_sc_hd__clkbuf_16 A VGND VNB VPB VPWR X
.ends

* Black-box entry subcircuit for sky130_fd_sc_hd__a2bb2oi_1 abstract view
.subckt sky130_fd_sc_hd__a2bb2oi_1 A1_N A2_N B1 B2 VGND VNB VPB VPWR Y
.ends

* Black-box entry subcircuit for sky130_fd_sc_hd__o21a_2 abstract view
.subckt sky130_fd_sc_hd__o21a_2 A1 A2 B1 VGND VNB VPB VPWR X
.ends

* Black-box entry subcircuit for sky130_fd_sc_hd__dfxtp_1 abstract view
.subckt sky130_fd_sc_hd__dfxtp_1 CLK D VGND VNB VPB VPWR Q
.ends

* Black-box entry subcircuit for sky130_fd_sc_hd__o31a_1 abstract view
.subckt sky130_fd_sc_hd__o31a_1 A1 A2 A3 B1 VGND VNB VPB VPWR X
.ends

* Black-box entry subcircuit for sky130_fd_sc_hd__nand4_2 abstract view
.subckt sky130_fd_sc_hd__nand4_2 A B C D VGND VNB VPB VPWR Y
.ends

* Black-box entry subcircuit for sky130_fd_sc_hd__nand4_1 abstract view
.subckt sky130_fd_sc_hd__nand4_1 A B C D VGND VNB VPB VPWR Y
.ends

* Black-box entry subcircuit for sky130_fd_sc_hd__dfrtp_2 abstract view
.subckt sky130_fd_sc_hd__dfrtp_2 CLK D RESET_B VGND VNB VPB VPWR Q
.ends

* Black-box entry subcircuit for sky130_fd_sc_hd__buf_4 abstract view
.subckt sky130_fd_sc_hd__buf_4 A VGND VNB VPB VPWR X
.ends

* Black-box entry subcircuit for sky130_fd_sc_hd__dfrtp_4 abstract view
.subckt sky130_fd_sc_hd__dfrtp_4 CLK D RESET_B VGND VNB VPB VPWR Q
.ends

* Black-box entry subcircuit for sky130_fd_sc_hd__o211a_1 abstract view
.subckt sky130_fd_sc_hd__o211a_1 A1 A2 B1 C1 VGND VNB VPB VPWR X
.ends

* Black-box entry subcircuit for sky130_fd_sc_hd__clkbuf_1 abstract view
.subckt sky130_fd_sc_hd__clkbuf_1 A VGND VNB VPB VPWR X
.ends

* Black-box entry subcircuit for sky130_fd_sc_hd__o311a_1 abstract view
.subckt sky130_fd_sc_hd__o311a_1 A1 A2 A3 B1 C1 VGND VNB VPB VPWR X
.ends

* Black-box entry subcircuit for sky130_fd_sc_hd__a211o_1 abstract view
.subckt sky130_fd_sc_hd__a211o_1 A1 A2 B1 C1 VGND VNB VPB VPWR X
.ends

* Black-box entry subcircuit for sky130_fd_sc_hd__a22oi_1 abstract view
.subckt sky130_fd_sc_hd__a22oi_1 A1 A2 B1 B2 VGND VNB VPB VPWR Y
.ends

* Black-box entry subcircuit for sky130_fd_sc_hd__buf_12 abstract view
.subckt sky130_fd_sc_hd__buf_12 A VGND VNB VPB VPWR X
.ends

* Black-box entry subcircuit for sky130_fd_sc_hd__nand3b_4 abstract view
.subckt sky130_fd_sc_hd__nand3b_4 A_N B C VGND VNB VPB VPWR Y
.ends

* Black-box entry subcircuit for sky130_fd_sc_hd__a221oi_1 abstract view
.subckt sky130_fd_sc_hd__a221oi_1 A1 A2 B1 B2 C1 VGND VNB VPB VPWR Y
.ends

* Black-box entry subcircuit for sky130_fd_sc_hd__and3_4 abstract view
.subckt sky130_fd_sc_hd__and3_4 A B C VGND VNB VPB VPWR X
.ends

* Black-box entry subcircuit for sky130_fd_sc_hd__nor4_1 abstract view
.subckt sky130_fd_sc_hd__nor4_1 A B C D VGND VNB VPB VPWR Y
.ends

* Black-box entry subcircuit for sky130_fd_sc_hd__a41oi_1 abstract view
.subckt sky130_fd_sc_hd__a41oi_1 A1 A2 A3 A4 B1 VGND VNB VPB VPWR Y
.ends

* Black-box entry subcircuit for sky130_fd_sc_hd__and3_2 abstract view
.subckt sky130_fd_sc_hd__and3_2 A B C VGND VNB VPB VPWR X
.ends

* Black-box entry subcircuit for sky130_fd_sc_hd__clkbuf_2 abstract view
.subckt sky130_fd_sc_hd__clkbuf_2 A VGND VNB VPB VPWR X
.ends

* Black-box entry subcircuit for sky130_fd_sc_hd__a31o_1 abstract view
.subckt sky130_fd_sc_hd__a31o_1 A1 A2 A3 B1 VGND VNB VPB VPWR X
.ends

* Black-box entry subcircuit for sky130_fd_sc_hd__and4_1 abstract view
.subckt sky130_fd_sc_hd__and4_1 A B C D VGND VNB VPB VPWR X
.ends

* Black-box entry subcircuit for sky130_fd_sc_hd__o22a_2 abstract view
.subckt sky130_fd_sc_hd__o22a_2 A1 A2 B1 B2 VGND VNB VPB VPWR X
.ends

.subckt timer_pwm_interface VGND VPWR addr[0] addr[1] addr[2] addr[3] addr[4] clk
+ irq_timer outa outb rdata[0] rdata[1] rdata[2] rdata[3] rdata[4] rdata[5] rdata[6]
+ rdata[7] read_en rst wdata[0] wdata[1] wdata[2] wdata[3] wdata[4] wdata[5] wdata[6]
+ wdata[7] write_en
XFILLER_26_85 VGND VGND VPWR VPWR sky130_fd_sc_hd__decap_4
XFILLER_26_41 VPWR VGND VPWR VGND sky130_ef_sc_hd__decap_12
X_294_ period\[7\] cnt\[7\] net2 VGND VGND VPWR VPWR _155_ sky130_fd_sc_hd__mux2_1
XFILLER_13_111 VGND VGND VPWR VPWR sky130_fd_sc_hd__fill_1
XFILLER_9_137 VGND VGND VPWR VPWR sky130_fd_sc_hd__decap_6
X_363_ clknet_2_2__leaf_clk _057_ _032_ VGND VGND VPWR VPWR period\[3\] sky130_fd_sc_hd__dfrtp_1
X_346_ net7 VGND VGND VPWR VPWR _015_ sky130_fd_sc_hd__inv_2
XFILLER_6_129 VGND VGND VPWR VPWR sky130_fd_sc_hd__decap_8
XTAP_TAPCELL_ROW_8_88 VGND VPWR sky130_fd_sc_hd__tapvpwrvgnd_1
XFILLER_10_136 VGND VGND VPWR VPWR sky130_fd_sc_hd__decap_4
XFILLER_12_54 VGND VGND VPWR VPWR sky130_fd_sc_hd__decap_8
XPHY_EDGE_ROW_20_Left_50 VGND VGND VPWR VPWR sky130_fd_sc_hd__decap_3
X_277_ duty\[5\] _068_ _069_ duty\[4\] VGND VGND VPWR VPWR _141_ sky130_fd_sc_hd__o22a_1
XFILLER_5_140 VPWR VGND VPWR VGND sky130_ef_sc_hd__decap_12
X_200_ net14 period\[6\] _079_ VGND VGND VPWR VPWR _060_ sky130_fd_sc_hd__mux2_1
XFILLER_2_121 VPWR VGND VPWR VGND sky130_ef_sc_hd__decap_12
XFILLER_0_57 VPWR VGND VPWR VGND sky130_ef_sc_hd__decap_12
X_329_ net7 VGND VGND VPWR VPWR _026_ sky130_fd_sc_hd__inv_2
XFILLER_9_55 VGND VGND VPWR VPWR sky130_fd_sc_hd__fill_1
XFILLER_18_97 VGND VGND VPWR VPWR sky130_fd_sc_hd__decap_4
XFILLER_18_64 VGND VGND VPWR VPWR sky130_fd_sc_hd__decap_3
XTAP_TAPCELL_ROW_5_78 VGND VPWR sky130_fd_sc_hd__tapvpwrvgnd_1
XFILLER_29_139 VGND VGND VPWR VPWR sky130_fd_sc_hd__fill_1
XFILLER_29_85 VGND VGND VPWR VPWR sky130_fd_sc_hd__fill_2
XFILLER_29_63 VGND VGND VPWR VPWR sky130_fd_sc_hd__decap_3
XFILLER_29_41 VGND VGND VPWR VPWR sky130_fd_sc_hd__decap_8
XFILLER_20_10 VGND VGND VPWR VPWR sky130_fd_sc_hd__fill_1
XFILLER_6_45 VGND VGND VPWR VPWR sky130_fd_sc_hd__decap_4
XFILLER_6_67 VPWR VGND VPWR VGND sky130_ef_sc_hd__decap_12
XFILLER_13_3 VPWR VGND VPWR VGND sky130_ef_sc_hd__decap_12
XFILLER_17_109 VGND VGND VPWR VPWR sky130_fd_sc_hd__decap_3
XFILLER_15_43 VGND VGND VPWR VPWR sky130_fd_sc_hd__fill_1
Xoutput20 net20 VGND VGND VPWR VPWR rdata[0] sky130_fd_sc_hd__buf_1
XFILLER_16_153 VGND VGND VPWR VPWR sky130_fd_sc_hd__decap_4
XFILLER_22_112 VPWR VGND VPWR VGND sky130_ef_sc_hd__decap_12
XFILLER_26_53 VGND VGND VPWR VPWR sky130_fd_sc_hd__decap_6
X_293_ _017_ net6 VGND VGND VPWR VPWR _154_ sky130_fd_sc_hd__nand2_2
X_362_ clknet_2_2__leaf_clk _056_ _031_ VGND VGND VPWR VPWR period\[2\] sky130_fd_sc_hd__dfstp_1
XTAP_TAPCELL_ROW_12_99 VGND VPWR sky130_fd_sc_hd__tapvpwrvgnd_1
XFILLER_6_108 VGND VGND VPWR VPWR sky130_fd_sc_hd__decap_6
X_345_ net7 VGND VGND VPWR VPWR _014_ sky130_fd_sc_hd__inv_2
X_276_ duty\[5\] _068_ _139_ VGND VGND VPWR VPWR _140_ sky130_fd_sc_hd__a21oi_1
XFILLER_5_152 VPWR VGND VPWR VGND sky130_ef_sc_hd__decap_12
XTAP_TAPCELL_ROW_8_89 VGND VPWR sky130_fd_sc_hd__tapvpwrvgnd_1
XFILLER_23_54 VGND VGND VPWR VPWR sky130_fd_sc_hd__fill_2
XFILLER_23_21 VPWR VGND VPWR VGND sky130_ef_sc_hd__decap_12
XPHY_EDGE_ROW_21_Right_21 VGND VGND VPWR VPWR sky130_fd_sc_hd__decap_3
XPHY_EDGE_ROW_12_Right_12 VGND VGND VPWR VPWR sky130_fd_sc_hd__decap_3
X_328_ net7 VGND VGND VPWR VPWR _025_ sky130_fd_sc_hd__inv_2
XFILLER_2_133 VGND VGND VPWR VPWR sky130_fd_sc_hd__decap_6
XFILLER_0_69 VPWR VGND VPWR VGND sky130_ef_sc_hd__decap_12
X_259_ _113_ _106_ _093_ enable _125_ VGND VGND VPWR VPWR _005_ sky130_fd_sc_hd__o2111a_1
XFILLER_9_23 VPWR VGND VPWR VGND sky130_ef_sc_hd__decap_12
XFILLER_18_43 VGND VGND VPWR VPWR sky130_fd_sc_hd__fill_2
XTAP_TAPCELL_ROW_5_79 VGND VPWR sky130_fd_sc_hd__tapvpwrvgnd_1
XFILLER_29_118 VGND VGND VPWR VPWR sky130_fd_sc_hd__decap_4
XFILLER_29_97 VGND VGND VPWR VPWR sky130_fd_sc_hd__decap_4
XFILLER_6_79 VGND VGND VPWR VPWR sky130_fd_sc_hd__decap_4
XPHY_EDGE_ROW_6_Right_6 VGND VGND VPWR VPWR sky130_fd_sc_hd__decap_3
Xoutput21 net21 VGND VGND VPWR VPWR rdata[1] sky130_fd_sc_hd__buf_1
XTAP_TAPCELL_ROW_2_69 VGND VPWR sky130_fd_sc_hd__tapvpwrvgnd_1
XFILLER_22_124 VPWR VGND VPWR VGND sky130_ef_sc_hd__decap_12
X_292_ _017_ net6 VGND VGND VPWR VPWR _153_ sky130_fd_sc_hd__and2_2
XFILLER_26_65 VPWR VGND VPWR VGND sky130_ef_sc_hd__decap_12
XTAP_TAPCELL_ROW_15_108 VGND VPWR sky130_fd_sc_hd__tapvpwrvgnd_1
X_361_ clknet_2_2__leaf_clk _055_ _030_ VGND VGND VPWR VPWR period\[1\] sky130_fd_sc_hd__dfrtp_1
XFILLER_13_113 VGND VGND VPWR VPWR sky130_fd_sc_hd__decap_3
XFILLER_13_102 VGND VGND VPWR VPWR sky130_fd_sc_hd__fill_1
X_344_ net7 VGND VGND VPWR VPWR _013_ sky130_fd_sc_hd__inv_2
X_275_ duty\[7\] _066_ _136_ VGND VGND VPWR VPWR _139_ sky130_fd_sc_hd__o21ai_1
XFILLER_5_164 VGND VGND VPWR VPWR sky130_fd_sc_hd__decap_4
XFILLER_23_33 VGND VGND VPWR VPWR sky130_fd_sc_hd__decap_4
XFILLER_3_3 VPWR VGND VPWR VGND sky130_ef_sc_hd__decap_12
XFILLER_0_15 VPWR VGND VPWR VGND sky130_ef_sc_hd__decap_12
XFILLER_9_35 VPWR VGND VPWR VGND sky130_ef_sc_hd__decap_12
X_189_ net15 duty\[7\] _077_ VGND VGND VPWR VPWR _043_ sky130_fd_sc_hd__mux2_1
X_327_ net7 VGND VGND VPWR VPWR _024_ sky130_fd_sc_hd__inv_2
X_258_ _068_ _123_ VGND VGND VPWR VPWR _125_ sky130_fd_sc_hd__xor2_1
XFILLER_9_57 VPWR VGND VPWR VGND sky130_ef_sc_hd__decap_12
XFILLER_9_79 VGND VGND VPWR VPWR sky130_fd_sc_hd__decap_4
XFILLER_18_55 VGND VGND VPWR VPWR sky130_fd_sc_hd__decap_3
XPHY_EDGE_ROW_8_Left_38 VGND VGND VPWR VPWR sky130_fd_sc_hd__decap_3
XFILLER_29_76 VGND VGND VPWR VPWR sky130_fd_sc_hd__decap_4
XFILLER_28_163 VPWR VGND VPWR VGND sky130_ef_sc_hd__decap_12
XFILLER_20_6 VGND VGND VPWR VPWR sky130_fd_sc_hd__decap_4
XFILLER_19_141 VGND VGND VPWR VPWR sky130_fd_sc_hd__decap_4
XFILLER_25_155 VPWR VGND VPWR VGND sky130_ef_sc_hd__decap_12
XFILLER_25_111 VGND VGND VPWR VPWR sky130_fd_sc_hd__fill_1
XTAP_TAPCELL_ROW_18_117 VGND VPWR sky130_fd_sc_hd__tapvpwrvgnd_1
Xoutput22 net22 VGND VGND VPWR VPWR rdata[2] sky130_fd_sc_hd__buf_1
XFILLER_22_136 VGND VGND VPWR VPWR sky130_fd_sc_hd__decap_4
X_291_ _017_ _074_ _152_ _115_ VGND VGND VPWR VPWR _044_ sky130_fd_sc_hd__o22ai_1
XFILLER_26_77 VGND VGND VPWR VPWR sky130_fd_sc_hd__decap_6
X_360_ clknet_2_3__leaf_clk _054_ _029_ VGND VGND VPWR VPWR period\[0\] sky130_fd_sc_hd__dfrtp_1
XTAP_TAPCELL_ROW_15_109 VGND VPWR sky130_fd_sc_hd__tapvpwrvgnd_1
XFILLER_13_136 VGND VGND VPWR VPWR sky130_fd_sc_hd__decap_8
XFILLER_3_15 VPWR VGND VPWR VGND sky130_ef_sc_hd__decap_12
XTAP_TAPCELL_ROW_20_123 VGND VPWR sky130_fd_sc_hd__tapvpwrvgnd_1
XFILLER_10_106 VPWR VGND VPWR VGND sky130_ef_sc_hd__decap_12
XFILLER_12_35 VPWR VGND VPWR VGND sky130_ef_sc_hd__decap_12
XFILLER_12_68 VGND VGND VPWR VPWR sky130_fd_sc_hd__fill_1
X_343_ net7 VGND VGND VPWR VPWR _012_ sky130_fd_sc_hd__inv_2
X_274_ cnt\[5\] duty\[5\] VGND VGND VPWR VPWR _138_ sky130_fd_sc_hd__and2b_1
XFILLER_0_27 VGND VGND VPWR VPWR sky130_fd_sc_hd__fill_1
XFILLER_29_3 VGND VGND VPWR VPWR sky130_fd_sc_hd__decap_8
XPHY_EDGE_ROW_24_Left_54 VGND VGND VPWR VPWR sky130_fd_sc_hd__decap_3
X_188_ net16 _076_ VGND VGND VPWR VPWR _077_ sky130_fd_sc_hd__nand2_4
X_257_ _064_ _094_ _124_ _114_ VGND VGND VPWR VPWR _004_ sky130_fd_sc_hd__nor4b_1
X_326_ net7 VGND VGND VPWR VPWR _023_ sky130_fd_sc_hd__inv_2
XFILLER_9_47 VGND VGND VPWR VPWR sky130_fd_sc_hd__decap_8
XFILLER_9_69 VGND VGND VPWR VPWR sky130_fd_sc_hd__decap_6
XTAP_TAPCELL_ROW_9_90 VGND VPWR sky130_fd_sc_hd__tapvpwrvgnd_1
X_309_ period\[2\] cnt\[2\] net2 VGND VGND VPWR VPWR _165_ sky130_fd_sc_hd__mux2_1
XFILLER_1_81 VPWR VGND VPWR VGND sky130_ef_sc_hd__decap_12
XFILLER_29_55 VGND VGND VPWR VPWR sky130_fd_sc_hd__fill_1
XFILLER_29_11 VGND VGND VPWR VPWR sky130_fd_sc_hd__fill_2
XFILLER_28_175 VGND VGND VPWR VPWR sky130_fd_sc_hd__decap_3
XFILLER_20_46 VGND VGND VPWR VPWR sky130_fd_sc_hd__decap_3
XFILLER_6_15 VPWR VGND VPWR VGND sky130_ef_sc_hd__decap_12
Xoutput23 net23 VGND VGND VPWR VPWR rdata[3] sky130_fd_sc_hd__buf_1
XFILLER_25_167 VGND VGND VPWR VPWR sky130_fd_sc_hd__fill_1
XFILLER_25_145 VGND VGND VPWR VPWR sky130_fd_sc_hd__decap_3
XPHY_EDGE_ROW_11_Left_41 VGND VGND VPWR VPWR sky130_fd_sc_hd__decap_3
XTAP_TAPCELL_ROW_18_118 VGND VPWR sky130_fd_sc_hd__tapvpwrvgnd_1
X_290_ _017_ enable VGND VGND VPWR VPWR _152_ sky130_fd_sc_hd__nand2_1
XTAP_TAPCELL_ROW_23_132 VGND VPWR sky130_fd_sc_hd__tapvpwrvgnd_1
XFILLER_3_27 VPWR VGND VPWR VGND sky130_ef_sc_hd__decap_12
XTAP_TAPCELL_ROW_20_124 VGND VPWR sky130_fd_sc_hd__tapvpwrvgnd_1
XFILLER_8_141 VPWR VGND VPWR VGND sky130_ef_sc_hd__decap_12
XFILLER_10_118 VGND VGND VPWR VPWR sky130_fd_sc_hd__fill_1
X_342_ net7 VGND VGND VPWR VPWR _011_ sky130_fd_sc_hd__inv_2
X_273_ duty\[7\] cnt\[7\] VGND VGND VPWR VPWR _137_ sky130_fd_sc_hd__nand2b_1
XFILLER_12_47 VGND VGND VPWR VPWR sky130_fd_sc_hd__fill_2
XFILLER_5_177 VGND VGND VPWR VPWR sky130_fd_sc_hd__fill_1
XFILLER_23_57 VGND VGND VPWR VPWR sky130_fd_sc_hd__decap_6
XFILLER_23_46 VGND VGND VPWR VPWR sky130_fd_sc_hd__decap_8
X_187_ net1 _075_ _073_ net2 VGND VGND VPWR VPWR _076_ sky130_fd_sc_hd__and4b_4
X_256_ _121_ _123_ VGND VGND VPWR VPWR _124_ sky130_fd_sc_hd__nand2_1
XTAP_TAPCELL_ROW_0_60 VGND VPWR sky130_fd_sc_hd__tapvpwrvgnd_1
X_325_ net7 VGND VGND VPWR VPWR _022_ sky130_fd_sc_hd__inv_2
XTAP_TAPCELL_ROW_9_91 VGND VPWR sky130_fd_sc_hd__tapvpwrvgnd_1
Xclkload0 clknet_2_0__leaf_clk VGND VGND VPWR VPWR clkload0/Y sky130_fd_sc_hd__bufinv_16
X_308_ net23 _153_ _164_ VGND VGND VPWR VPWR _049_ sky130_fd_sc_hd__o21a_1
XFILLER_1_93 VPWR VGND VPWR VGND sky130_ef_sc_hd__decap_12
X_239_ _108_ _109_ _089_ _091_ VGND VGND VPWR VPWR _111_ sky130_fd_sc_hd__o211ai_1
XFILLER_20_69 VGND VGND VPWR VPWR sky130_fd_sc_hd__decap_4
XFILLER_6_27 VGND VGND VPWR VPWR sky130_fd_sc_hd__fill_1
XFILLER_6_49 VGND VGND VPWR VPWR sky130_fd_sc_hd__fill_1
XTAP_TAPCELL_ROW_6_81 VGND VPWR sky130_fd_sc_hd__tapvpwrvgnd_1
Xoutput24 net24 VGND VGND VPWR VPWR rdata[4] sky130_fd_sc_hd__buf_1
XFILLER_25_113 VPWR VGND VPWR VGND sky130_ef_sc_hd__decap_12
XPHY_EDGE_ROW_28_Right_28 VGND VGND VPWR VPWR sky130_fd_sc_hd__decap_3
XTAP_TAPCELL_ROW_26_141 VGND VPWR sky130_fd_sc_hd__tapvpwrvgnd_1
XPHY_EDGE_ROW_19_Right_19 VGND VGND VPWR VPWR sky130_fd_sc_hd__decap_3
XTAP_TAPCELL_ROW_18_119 VGND VPWR sky130_fd_sc_hd__tapvpwrvgnd_1
XFILLER_16_157 VGND VGND VPWR VPWR sky130_fd_sc_hd__fill_1
XTAP_TAPCELL_ROW_23_133 VGND VPWR sky130_fd_sc_hd__tapvpwrvgnd_1
XFILLER_3_39 VPWR VGND VPWR VGND sky130_ef_sc_hd__decap_12
XFILLER_8_153 VPWR VGND VPWR VGND sky130_ef_sc_hd__decap_12
XFILLER_12_171 VGND VGND VPWR VPWR sky130_fd_sc_hd__decap_6
X_341_ net7 VGND VGND VPWR VPWR _010_ sky130_fd_sc_hd__inv_2
XTAP_TAPCELL_ROW_20_125 VGND VPWR sky130_fd_sc_hd__tapvpwrvgnd_1
X_272_ cnt\[6\] duty\[6\] VGND VGND VPWR VPWR _136_ sky130_fd_sc_hd__nand2b_1
XFILLER_12_15 VPWR VGND VPWR VGND sky130_ef_sc_hd__decap_12
XFILLER_4_82 VGND VGND VPWR VPWR sky130_fd_sc_hd__fill_2
XFILLER_4_93 VGND VGND VPWR VPWR sky130_fd_sc_hd__fill_2
X_186_ net4 net5 VGND VGND VPWR VPWR _075_ sky130_fd_sc_hd__nor2_1
XFILLER_0_29 VPWR VGND VPWR VGND sky130_ef_sc_hd__decap_12
X_255_ _118_ _122_ VGND VGND VPWR VPWR _123_ sky130_fd_sc_hd__nand2_1
X_324_ net7 VGND VGND VPWR VPWR _021_ sky130_fd_sc_hd__inv_2
XTAP_TAPCELL_ROW_0_61 VGND VPWR sky130_fd_sc_hd__tapvpwrvgnd_1
XTAP_TAPCELL_ROW_9_92 VGND VPWR sky130_fd_sc_hd__tapvpwrvgnd_1
Xclkload1 clknet_2_1__leaf_clk VGND VGND VPWR VPWR clkload1/X sky130_fd_sc_hd__clkbuf_4
XFILLER_1_3 VPWR VGND VPWR VGND sky130_ef_sc_hd__decap_12
X_307_ _163_ _078_ _076_ duty\[3\] _154_ VGND VGND VPWR VPWR _164_ sky130_fd_sc_hd__a221o_1
X_238_ period\[5\] _068_ _108_ _109_ VGND VGND VPWR VPWR _110_ sky130_fd_sc_hd__o22a_1
XFILLER_28_144 VGND VGND VPWR VPWR sky130_fd_sc_hd__decap_3
XTAP_TAPCELL_ROW_29_150 VGND VPWR sky130_fd_sc_hd__tapvpwrvgnd_1
XTAP_TAPCELL_ROW_6_82 VGND VPWR sky130_fd_sc_hd__tapvpwrvgnd_1
XFILLER_25_169 VGND VGND VPWR VPWR sky130_fd_sc_hd__decap_6
XFILLER_25_125 VPWR VGND VPWR VGND sky130_ef_sc_hd__decap_12
Xoutput25 net25 VGND VGND VPWR VPWR rdata[5] sky130_fd_sc_hd__buf_1
XTAP_TAPCELL_ROW_26_142 VGND VPWR sky130_fd_sc_hd__tapvpwrvgnd_1
XTAP_TAPCELL_ROW_23_134 VGND VPWR sky130_fd_sc_hd__tapvpwrvgnd_1
XTAP_TAPCELL_ROW_3_72 VGND VPWR sky130_fd_sc_hd__tapvpwrvgnd_1
XFILLER_8_165 VPWR VGND VPWR VGND sky130_ef_sc_hd__decap_12
XFILLER_12_161 VGND VGND VPWR VPWR sky130_fd_sc_hd__fill_1
XFILLER_12_27 VGND VGND VPWR VPWR sky130_fd_sc_hd__fill_1
X_340_ net7 VGND VGND VPWR VPWR _037_ sky130_fd_sc_hd__inv_2
X_271_ _132_ _133_ _134_ VGND VGND VPWR VPWR _135_ sky130_fd_sc_hd__a21o_1
XFILLER_5_113 VGND VGND VPWR VPWR sky130_fd_sc_hd__decap_6
X_323_ net7 VGND VGND VPWR VPWR _020_ sky130_fd_sc_hd__inv_2
X_185_ irq_timer_next VGND VGND VPWR VPWR _074_ sky130_fd_sc_hd__inv_2
X_254_ cnt\[4\] cnt\[3\] VGND VGND VPWR VPWR _122_ sky130_fd_sc_hd__and2_1
XTAP_TAPCELL_ROW_0_62 VGND VPWR sky130_fd_sc_hd__tapvpwrvgnd_1
Xclkload2 clknet_2_2__leaf_clk VGND VGND VPWR VPWR clkload2/X sky130_fd_sc_hd__clkbuf_8
XPHY_EDGE_ROW_28_Left_58 VGND VGND VPWR VPWR sky130_fd_sc_hd__decap_3
XFILLER_27_3 VGND VGND VPWR VPWR sky130_fd_sc_hd__decap_6
X_306_ period\[3\] cnt\[3\] net2 VGND VGND VPWR VPWR _163_ sky130_fd_sc_hd__mux2_1
X_237_ period\[4\] cnt\[4\] VGND VGND VPWR VPWR _109_ sky130_fd_sc_hd__and2_1
XFILLER_29_69 VGND VGND VPWR VPWR sky130_fd_sc_hd__decap_4
XFILLER_20_38 VGND VGND VPWR VPWR sky130_fd_sc_hd__decap_8
XFILLER_1_51 VGND VGND VPWR VPWR sky130_fd_sc_hd__decap_4
XTAP_TAPCELL_ROW_29_151 VGND VPWR sky130_fd_sc_hd__tapvpwrvgnd_1
XFILLER_6_29 VGND VGND VPWR VPWR sky130_fd_sc_hd__fill_1
XTAP_TAPCELL_ROW_10_93 VGND VPWR sky130_fd_sc_hd__tapvpwrvgnd_1
XFILLER_25_137 VGND VGND VPWR VPWR sky130_fd_sc_hd__fill_1
XTAP_TAPCELL_ROW_6_83 VGND VPWR sky130_fd_sc_hd__tapvpwrvgnd_1
Xoutput26 net26 VGND VGND VPWR VPWR rdata[6] sky130_fd_sc_hd__buf_1
XTAP_TAPCELL_ROW_26_143 VGND VPWR sky130_fd_sc_hd__tapvpwrvgnd_1
XFILLER_16_137 VGND VGND VPWR VPWR sky130_fd_sc_hd__decap_3
XPHY_EDGE_ROW_1_Right_1 VGND VGND VPWR VPWR sky130_fd_sc_hd__decap_3
XFILLER_21_70 VGND VGND VPWR VPWR sky130_fd_sc_hd__fill_1
XPHY_EDGE_ROW_15_Left_45 VGND VGND VPWR VPWR sky130_fd_sc_hd__decap_3
XFILLER_7_72 VPWR VGND VPWR VGND sky130_ef_sc_hd__decap_12
XFILLER_26_15 VPWR VGND VPWR VGND sky130_ef_sc_hd__decap_12
XTAP_TAPCELL_ROW_3_73 VGND VPWR sky130_fd_sc_hd__tapvpwrvgnd_1
XFILLER_8_100 VGND VGND VPWR VPWR sky130_fd_sc_hd__decap_3
XFILLER_8_177 VGND VGND VPWR VPWR sky130_fd_sc_hd__fill_1
X_270_ _065_ cnt\[3\] _070_ duty\[2\] VGND VGND VPWR VPWR _134_ sky130_fd_sc_hd__o2bb2ai_1
XFILLER_5_169 VGND VGND VPWR VPWR sky130_fd_sc_hd__decap_8
XFILLER_2_139 VGND VGND VPWR VPWR sky130_fd_sc_hd__fill_1
X_322_ net7 VGND VGND VPWR VPWR _019_ sky130_fd_sc_hd__inv_2
X_184_ net7 VGND VGND VPWR VPWR _017_ sky130_fd_sc_hd__inv_2
X_253_ cnt\[3\] cnt\[2\] cnt\[1\] cnt\[0\] cnt\[4\] VGND VGND VPWR VPWR _121_ sky130_fd_sc_hd__a41o_1
XFILLER_1_161 VGND VGND VPWR VPWR sky130_fd_sc_hd__decap_6
XTAP_TAPCELL_ROW_0_63 VGND VPWR sky130_fd_sc_hd__tapvpwrvgnd_1
XFILLER_18_27 VGND VGND VPWR VPWR sky130_fd_sc_hd__fill_1
X_305_ net24 _153_ _162_ VGND VGND VPWR VPWR _048_ sky130_fd_sc_hd__o21a_1
XFILLER_24_81 VGND VGND VPWR VPWR sky130_fd_sc_hd__decap_3
XPHY_EDGE_ROW_3_Left_33 VGND VGND VPWR VPWR sky130_fd_sc_hd__decap_3
X_236_ period\[4\] cnt\[4\] VGND VGND VPWR VPWR _108_ sky130_fd_sc_hd__nor2_1
XFILLER_19_113 VGND VGND VPWR VPWR sky130_fd_sc_hd__decap_3
XTAP_TAPCELL_ROW_10_94 VGND VPWR sky130_fd_sc_hd__tapvpwrvgnd_1
XTAP_TAPCELL_ROW_29_152 VGND VPWR sky130_fd_sc_hd__tapvpwrvgnd_1
X_219_ _068_ period\[5\] VGND VGND VPWR VPWR _091_ sky130_fd_sc_hd__nand2_1
Xoutput27 net27 VGND VGND VPWR VPWR rdata[7] sky130_fd_sc_hd__buf_1
XFILLER_15_28 VGND VGND VPWR VPWR sky130_fd_sc_hd__fill_2
XFILLER_24_160 VGND VGND VPWR VPWR sky130_fd_sc_hd__fill_1
Xclkbuf_0_clk clk VGND VGND VPWR VPWR clknet_0_clk sky130_fd_sc_hd__clkbuf_16
XFILLER_26_27 VGND VGND VPWR VPWR sky130_fd_sc_hd__fill_1
XPHY_EDGE_ROW_24_Right_24 VGND VGND VPWR VPWR sky130_fd_sc_hd__decap_3
XPHY_EDGE_ROW_15_Right_15 VGND VGND VPWR VPWR sky130_fd_sc_hd__decap_3
XFILLER_7_84 VPWR VGND VPWR VGND sky130_ef_sc_hd__decap_12
XTAP_TAPCELL_ROW_3_74 VGND VPWR sky130_fd_sc_hd__tapvpwrvgnd_1
XFILLER_12_141 VGND VGND VPWR VPWR sky130_fd_sc_hd__decap_6
XFILLER_12_29 VGND VGND VPWR VPWR sky130_fd_sc_hd__fill_1
XFILLER_4_41 VGND VGND VPWR VPWR sky130_fd_sc_hd__decap_3
XFILLER_4_85 VGND VGND VPWR VPWR sky130_fd_sc_hd__decap_8
X_183_ net3 VGND VGND VPWR VPWR _073_ sky130_fd_sc_hd__inv_2
XTAP_TAPCELL_ROW_0_64 VGND VPWR sky130_fd_sc_hd__tapvpwrvgnd_1
X_252_ _113_ _106_ _093_ enable _120_ VGND VGND VPWR VPWR _003_ sky130_fd_sc_hd__o2111a_1
X_321_ net7 VGND VGND VPWR VPWR _018_ sky130_fd_sc_hd__inv_2
X_304_ _161_ _078_ _076_ duty\[4\] _154_ VGND VGND VPWR VPWR _162_ sky130_fd_sc_hd__a221o_1
X_235_ _104_ _098_ _105_ VGND VGND VPWR VPWR _107_ sky130_fd_sc_hd__o21ai_1
XFILLER_29_49 VGND VGND VPWR VPWR sky130_fd_sc_hd__decap_3
XFILLER_29_16 VPWR VGND VPWR VGND sky130_ef_sc_hd__decap_12
XTAP_TAPCELL_ROW_10_95 VGND VPWR sky130_fd_sc_hd__tapvpwrvgnd_1
XTAP_TAPCELL_ROW_29_153 VGND VPWR sky130_fd_sc_hd__tapvpwrvgnd_1
X_218_ period\[4\] _069_ _089_ VGND VGND VPWR VPWR _090_ sky130_fd_sc_hd__o21ai_1
Xoutput17 net17 VGND VGND VPWR VPWR irq_timer sky130_fd_sc_hd__buf_1
XFILLER_7_96 VPWR VGND VPWR VGND sky130_ef_sc_hd__decap_12
XFILLER_21_153 VGND VGND VPWR VPWR sky130_fd_sc_hd__decap_6
XFILLER_16_83 VGND VGND VPWR VPWR sky130_fd_sc_hd__fill_1
Xclkbuf_2_0__f_clk clknet_0_clk VGND VGND VPWR VPWR clknet_2_0__leaf_clk sky130_fd_sc_hd__clkbuf_16
X_320_ net20 _153_ _171_ _173_ VGND VGND VPWR VPWR _052_ sky130_fd_sc_hd__a2bb2oi_1
X_182_ cnt\[0\] VGND VGND VPWR VPWR _072_ sky130_fd_sc_hd__inv_2
XTAP_TAPCELL_ROW_0_65 VGND VPWR sky130_fd_sc_hd__tapvpwrvgnd_1
X_251_ cnt\[3\] _118_ VGND VGND VPWR VPWR _120_ sky130_fd_sc_hd__xor2_1
XFILLER_13_51 VGND VGND VPWR VPWR sky130_fd_sc_hd__decap_4
XFILLER_18_29 VGND VGND VPWR VPWR sky130_fd_sc_hd__decap_6
X_303_ period\[4\] cnt\[4\] net2 VGND VGND VPWR VPWR _161_ sky130_fd_sc_hd__mux2_1
X_234_ _104_ _098_ _105_ VGND VGND VPWR VPWR _106_ sky130_fd_sc_hd__o21a_2
XTAP_TAPCELL_ROW_29_154 VGND VPWR sky130_fd_sc_hd__tapvpwrvgnd_1
XFILLER_19_148 VPWR VGND VPWR VGND sky130_ef_sc_hd__decap_12
X_217_ period\[5\] cnt\[5\] VGND VGND VPWR VPWR _089_ sky130_fd_sc_hd__nand2b_1
XFILLER_10_85 VPWR VGND VPWR VGND sky130_ef_sc_hd__decap_12
XFILLER_25_107 VGND VGND VPWR VPWR sky130_fd_sc_hd__decap_4
XFILLER_25_3 VPWR VGND VPWR VGND sky130_ef_sc_hd__decap_12
Xoutput18 net18 VGND VGND VPWR VPWR outa sky130_fd_sc_hd__buf_1
XFILLER_21_95 VGND VGND VPWR VPWR sky130_fd_sc_hd__fill_1
XFILLER_16_129 VGND VGND VPWR VPWR sky130_fd_sc_hd__decap_8
XFILLER_16_107 VPWR VGND VPWR VGND sky130_ef_sc_hd__decap_12
XFILLER_7_42 VGND VGND VPWR VPWR sky130_fd_sc_hd__fill_2
XFILLER_7_53 VGND VGND VPWR VPWR sky130_fd_sc_hd__decap_3
XFILLER_26_29 VPWR VGND VPWR VGND sky130_ef_sc_hd__decap_12
XFILLER_21_165 VGND VGND VPWR VPWR sky130_fd_sc_hd__decap_3
XPHY_EDGE_ROW_5_Right_5 VGND VGND VPWR VPWR sky130_fd_sc_hd__decap_3
XPHY_EDGE_ROW_19_Left_49 VGND VGND VPWR VPWR sky130_fd_sc_hd__decap_3
XFILLER_12_121 VGND VGND VPWR VPWR sky130_fd_sc_hd__decap_3
XTAP_TAPCELL_ROW_14_105 VGND VPWR sky130_fd_sc_hd__tapvpwrvgnd_1
XFILLER_5_106 VGND VGND VPWR VPWR sky130_fd_sc_hd__decap_6
XFILLER_5_128 VPWR VGND VPWR VGND sky130_ef_sc_hd__decap_12
XFILLER_2_109 VPWR VGND VPWR VGND sky130_ef_sc_hd__decap_12
X_181_ cnt\[1\] VGND VGND VPWR VPWR _071_ sky130_fd_sc_hd__inv_2
X_250_ _113_ _106_ _093_ enable _119_ VGND VGND VPWR VPWR _002_ sky130_fd_sc_hd__o2111a_1
X_379_ clknet_2_1__leaf_clk _047_ VGND VGND VPWR VPWR net25 sky130_fd_sc_hd__dfxtp_1
X_302_ net25 _153_ _160_ VGND VGND VPWR VPWR _047_ sky130_fd_sc_hd__o21a_1
XFILLER_1_55 VGND VGND VPWR VPWR sky130_fd_sc_hd__fill_1
X_233_ period\[2\] _070_ _099_ _101_ VGND VGND VPWR VPWR _105_ sky130_fd_sc_hd__o31a_1
XFILLER_29_29 VPWR VGND VPWR VGND sky130_ef_sc_hd__decap_12
XTAP_TAPCELL_ROW_29_155 VGND VPWR sky130_fd_sc_hd__tapvpwrvgnd_1
XPHY_EDGE_ROW_7_Left_37 VGND VGND VPWR VPWR sky130_fd_sc_hd__decap_3
X_216_ _082_ _083_ _086_ _087_ VGND VGND VPWR VPWR _088_ sky130_fd_sc_hd__nand4_2
XFILLER_16_119 VGND VGND VPWR VPWR sky130_fd_sc_hd__fill_1
Xoutput19 net19 VGND VGND VPWR VPWR outb sky130_fd_sc_hd__buf_1
XTAP_TAPCELL_ROW_17_114 VGND VPWR sky130_fd_sc_hd__tapvpwrvgnd_1
XFILLER_21_111 VGND VGND VPWR VPWR sky130_fd_sc_hd__fill_1
XPHY_EDGE_ROW_20_Right_20 VGND VGND VPWR VPWR sky130_fd_sc_hd__decap_3
XFILLER_16_85 VGND VGND VPWR VPWR sky130_fd_sc_hd__fill_1
XFILLER_16_41 VPWR VGND VPWR VGND sky130_ef_sc_hd__decap_12
XTAP_TAPCELL_ROW_14_106 VGND VPWR sky130_fd_sc_hd__tapvpwrvgnd_1
XPHY_EDGE_ROW_11_Right_11 VGND VGND VPWR VPWR sky130_fd_sc_hd__decap_3
XFILLER_12_177 VGND VGND VPWR VPWR sky130_fd_sc_hd__fill_1
X_180_ cnt\[2\] VGND VGND VPWR VPWR _070_ sky130_fd_sc_hd__inv_2
X_378_ clknet_2_1__leaf_clk _046_ VGND VGND VPWR VPWR net26 sky130_fd_sc_hd__dfxtp_1
XFILLER_24_85 VGND VGND VPWR VPWR sky130_fd_sc_hd__fill_1