*SPEF "ieee 1481-1999"
*DESIGN "timer_pwm_interface"
*DATE "08:10:18 Friday May 30, 2025"
*VENDOR "The OpenROAD Project"
*PROGRAM "OpenROAD"
*VERSION "v2.0-16235-gedf00dff9"
*DESIGN_FLOW "NAME_SCOPE LOCAL" "PIN_CAP NONE"
*DIVIDER /
*DELIMITER :
*BUS_DELIMITER []
*T_UNIT 1 NS
*C_UNIT 1 PF
*R_UNIT 1 OHM
*L_UNIT 1 HENRY

*NAME_MAP
*3 addr[0]
*4 addr[1]
*5 addr[2]
*6 addr[3]
*7 addr[4]
*8 clk
*9 irq_timer
*10 outa
*11 outb
*12 rdata[0]
*13 rdata[1]
*14 rdata[2]
*15 rdata[3]
*16 rdata[4]
*17 rdata[5]
*18 rdata[6]
*19 rdata[7]
*20 read_en
*21 rst
*22 wdata[0]
*23 wdata[1]
*24 wdata[2]
*25 wdata[3]
*26 wdata[4]
*27 wdata[5]
*28 wdata[6]
*29 wdata[7]
*30 write_en
*31 _000_
*32 _001_
*33 _002_
*34 _003_
*35 _004_
*36 _005_
*37 _006_
*38 _007_
*39 _008_
*40 _009_
*41 _010_
*42 _011_
*43 _012_
*44 _013_
*45 _014_
*46 _015_
*47 _016_
*48 _017_
*49 _018_
*50 _019_
*51 _020_
*52 _021_
*53 _022_
*54 _023_
*55 _024_
*56 _025_
*57 _026_
*58 _027_
*59 _028_
*60 _029_
*61 _030_
*62 _031_
*63 _032_
*64 _033_
*65 _034_
*66 _035_
*67 _036_
*68 _037_
*69 _038_
*70 _039_
*71 _040_
*72 _041_
*73 _042_
*74 _043_
*75 _044_
*76 _045_
*77 _046_
*78 _047_
*79 _048_
*80 _049_
*81 _050_
*82 _051_
*83 _052_
*84 _053_
*85 _054_
*86 _055_
*87 _056_
*88 _057_
*89 _058_
*90 _059_
*91 _060_
*92 _061_
*93 _062_
*94 _063_
*95 _064_
*96 _065_
*97 _066_
*98 _067_
*99 _068_
*100 _069_
*101 _070_
*102 _071_
*103 _072_
*104 _073_
*105 _074_
*106 _075_
*107 _076_
*108 _077_
*109 _078_
*110 _079_
*111 _080_
*112 _081_
*113 _082_
*114 _083_
*115 _084_
*116 _085_
*117 _086_
*118 _087_
*119 _088_
*120 _089_
*121 _090_
*122 _091_
*123 _092_
*124 _093_
*125 _094_
*126 _095_
*127 _096_
*128 _097_
*129 _098_
*130 _099_
*131 _100_
*132 _101_
*133 _102_
*134 _103_
*135 _104_
*136 _105_
*137 _106_
*138 _107_
*139 _108_
*140 _109_
*141 _110_
*142 _111_
*143 _112_
*144 _113_
*145 _114_
*146 _115_
*147 _116_
*148 _117_
*149 _118_
*150 _119_
*151 _120_
*152 _121_
*153 _122_
*154 _123_
*155 _124_
*156 _125_
*157 _126_
*158 _127_
*159 _128_
*160 _129_
*161 _130_
*162 _131_
*163 _132_
*164 _133_
*165 _134_
*166 _135_
*167 _136_
*168 _137_
*169 _138_
*170 _139_
*171 _140_
*172 _141_
*173 _142_
*174 _143_
*175 _144_
*176 _145_
*177 _146_
*178 _147_
*179 _148_
*180 _149_
*181 _150_
*182 _151_
*183 _152_
*184 _153_
*185 _154_
*186 _155_
*187 _156_
*188 _157_
*189 _158_
*190 _159_
*191 _160_
*192 _161_
*193 _162_
*194 _163_
*195 _164_
*196 _165_
*197 _166_
*198 _167_
*199 _168_
*200 _169_
*201 _170_
*202 _171_
*203 _172_
*204 _173_
*205 clknet_0_clk
*206 clknet_2_0__leaf_clk
*207 clknet_2_1__leaf_clk
*208 clknet_2_2__leaf_clk
*209 clknet_2_3__leaf_clk
*210 cnt\[0\]
*211 cnt\[1\]
*212 cnt\[2\]
*213 cnt\[3\]
*214 cnt\[4\]
*215 cnt\[5\]
*216 cnt\[6\]
*217 cnt\[7\]
*218 duty\[0\]
*219 duty\[1\]
*220 duty\[2\]
*221 duty\[3\]
*222 duty\[4\]
*223 duty\[5\]
*224 duty\[6\]
*225 duty\[7\]
*226 enable
*227 irq_timer_next
*228 net1
*229 net10
*230 net11
*231 net12
*232 net13
*233 net14
*234 net15
*235 net16
*236 net17
*237 net18
*238 net19
*239 net2
*240 net20
*241 net21
*242 net22
*243 net23
*244 net24
*245 net25
*246 net26
*247 net27
*248 net3
*249 net4
*250 net5
*251 net6
*252 net7
*253 net8
*254 net9
*255 period\[0\]
*256 period\[1\]
*257 period\[2\]
*258 period\[3\]
*259 period\[4\]
*260 period\[5\]
*261 period\[6\]
*262 period\[7\]
*263 FILLER_0_109
*264 FILLER_0_113
*265 FILLER_0_125
*266 FILLER_0_137
*267 FILLER_0_141
*268 FILLER_0_15
*269 FILLER_0_153
*270 FILLER_0_165
*271 FILLER_0_169
*272 FILLER_0_177
*273 FILLER_0_27
*274 FILLER_0_29
*275 FILLER_0_3
*276 FILLER_0_41
*277 FILLER_0_53
*278 FILLER_0_57
*279 FILLER_0_69
*280 FILLER_0_81
*281 FILLER_0_85
*282 FILLER_0_97
*283 FILLER_10_106
*284 FILLER_10_118
*285 FILLER_10_124
*286 FILLER_10_136
*287 FILLER_10_141
*288 FILLER_10_153
*289 FILLER_10_21
*290 FILLER_10_27
*291 FILLER_10_29
*292 FILLER_10_35
*293 FILLER_10_47
*294 FILLER_10_59
*295 FILLER_10_78
*296 FILLER_10_85
*297 FILLER_10_9
*298 FILLER_11_102
*299 FILLER_11_110
*300 FILLER_11_118
*301 FILLER_11_141
*302 FILLER_11_147
*303 FILLER_11_159
*304 FILLER_11_167
*305 FILLER_11_169
*306 FILLER_11_177
*307 FILLER_11_26
*308 FILLER_11_47
*309 FILLER_11_54
*310 FILLER_11_65
*311 FILLER_11_78
*312 FILLER_11_90
*313 FILLER_12_109
*314 FILLER_12_121
*315 FILLER_12_135
*316 FILLER_12_139
*317 FILLER_12_141
*318 FILLER_12_147
*319 FILLER_12_15
*320 FILLER_12_157
*321 FILLER_12_161
*322 FILLER_12_171
*323 FILLER_12_177
*324 FILLER_12_27
*325 FILLER_12_29
*326 FILLER_12_3
*327 FILLER_12_35
*328 FILLER_12_47
*329 FILLER_12_54
*330 FILLER_12_68
*331 FILLER_12_83
*332 FILLER_12_85
*333 FILLER_12_97
*334 FILLER_13_102
*335 FILLER_13_111
*336 FILLER_13_113
*337 FILLER_13_136
*338 FILLER_13_15
*339 FILLER_13_153
*340 FILLER_13_165
*341 FILLER_13_172
*342 FILLER_13_27
*343 FILLER_13_3
*344 FILLER_13_39
*345 FILLER_13_51
*346 FILLER_13_55
*347 FILLER_13_77
*348 FILLER_14_105
*349 FILLER_14_136
*350 FILLER_14_141
*351 FILLER_14_153
*352 FILLER_14_177
*353 FILLER_14_26
*354 FILLER_14_33
*355 FILLER_14_37
*356 FILLER_14_43
*357 FILLER_14_51
*358 FILLER_14_81
*359 FILLER_14_85
*360 FILLER_14_97
*361 FILLER_15_106
*362 FILLER_15_113
*363 FILLER_15_117
*364 FILLER_15_121
*365 FILLER_15_144
*366 FILLER_15_155
*367 FILLER_15_169
*368 FILLER_15_20
*369 FILLER_15_28
*370 FILLER_15_3
*371 FILLER_15_43
*372 FILLER_15_52
*373 FILLER_15_70
*374 FILLER_15_75
*375 FILLER_16_107
*376 FILLER_16_119
*377 FILLER_16_129
*378 FILLER_16_137
*379 FILLER_16_141
*380 FILLER_16_153
*381 FILLER_16_157
*382 FILLER_16_18
*383 FILLER_16_26
*384 FILLER_16_29
*385 FILLER_16_41
*386 FILLER_16_53
*387 FILLER_16_6
*388 FILLER_16_65
*389 FILLER_16_77
*390 FILLER_16_83
*391 FILLER_16_85
*392 FILLER_17_109
*393 FILLER_17_132
*394 FILLER_17_144
*395 FILLER_17_154
*396 FILLER_17_166
*397 FILLER_17_169
*398 FILLER_17_20
*399 FILLER_17_3
*400 FILLER_17_40
*401 FILLER_17_48
*402 FILLER_17_57
*403 FILLER_17_69
*404 FILLER_17_85
*405 FILLER_17_97
*406 FILLER_18_101
*407 FILLER_18_105
*408 FILLER_18_117
*409 FILLER_18_126
*410 FILLER_18_138
*411 FILLER_18_174
*412 FILLER_18_27
*413 FILLER_18_29
*414 FILLER_18_43
*415 FILLER_18_55
*416 FILLER_18_64
*417 FILLER_18_81
*418 FILLER_18_85
*419 FILLER_18_97
*420 FILLER_19_106
*421 FILLER_19_113
*422 FILLER_19_141
*423 FILLER_19_148
*424 FILLER_19_15
*425 FILLER_19_160
*426 FILLER_19_27
*427 FILLER_19_3
*428 FILLER_19_31
*429 FILLER_19_39
*430 FILLER_19_47
*431 FILLER_19_55
*432 FILLER_19_65
*433 FILLER_19_77
*434 FILLER_19_89
*435 FILLER_1_105
*436 FILLER_1_111
*437 FILLER_1_113
*438 FILLER_1_125
*439 FILLER_1_137
*440 FILLER_1_149
*441 FILLER_1_15
*442 FILLER_1_161
*443 FILLER_1_167
*444 FILLER_1_169
*445 FILLER_1_177
*446 FILLER_1_27
*447 FILLER_1_3
*448 FILLER_1_39
*449 FILLER_1_51
*450 FILLER_1_55
*451 FILLER_1_57
*452 FILLER_1_69
*453 FILLER_1_81
*454 FILLER_1_93
*455 FILLER_20_10
*456 FILLER_20_106
*457 FILLER_20_112
*458 FILLER_20_133
*459 FILLER_20_139
*460 FILLER_20_141
*461 FILLER_20_151
*462 FILLER_20_159
*463 FILLER_20_176
*464 FILLER_20_20
*465 FILLER_20_38
*466 FILLER_20_46
*467 FILLER_20_6
*468 FILLER_20_69
*469 FILLER_20_73
*470 FILLER_20_80
*471 FILLER_20_85
*472 FILLER_21_111
*473 FILLER_21_113
*474 FILLER_21_119
*475 FILLER_21_129
*476 FILLER_21_135
*477 FILLER_21_153
*478 FILLER_21_165
*479 FILLER_21_169
*480 FILLER_21_23
*481 FILLER_21_45
*482 FILLER_21_53
*483 FILLER_21_66
*484 FILLER_21_70
*485 FILLER_21_87
*486 FILLER_21_95
*487 FILLER_21_99
*488 FILLER_22_11
*489 FILLER_22_112
*490 FILLER_22_124
*491 FILLER_22_136
*492 FILLER_22_141
*493 FILLER_22_153
*494 FILLER_22_16
*495 FILLER_22_165
*496 FILLER_22_173
*497 FILLER_22_29
*498 FILLER_22_3
*499 FILLER_22_33
*500 FILLER_22_37
*501 FILLER_22_49
*502 FILLER_22_61
*503 FILLER_22_73
*504 FILLER_22_81
*505 FILLER_22_85
*506 FILLER_22_97
*507 FILLER_23_113
*508 FILLER_23_121
*509 FILLER_23_132
*510 FILLER_23_147
*511 FILLER_23_159
*512 FILLER_23_166
*513 FILLER_23_169
*514 FILLER_23_177
*515 FILLER_23_21
*516 FILLER_23_33
*517 FILLER_23_46
*518 FILLER_23_54
*519 FILLER_23_57
*520 FILLER_23_6
*521 FILLER_23_72
*522 FILLER_23_84
*523 FILLER_23_93
*524 FILLER_24_109
*525 FILLER_24_139
*526 FILLER_24_144
*527 FILLER_24_156
*528 FILLER_24_160
*529 FILLER_24_177
*530 FILLER_24_26
*531 FILLER_24_3
*532 FILLER_24_52
*533 FILLER_24_81
*534 FILLER_24_85
*535 FILLER_25_107
*536 FILLER_25_111
*537 FILLER_25_113
*538 FILLER_25_125
*539 FILLER_25_137
*540 FILLER_25_145
*541 FILLER_25_15
*542 FILLER_25_155
*543 FILLER_25_167
*544 FILLER_25_169
*545 FILLER_25_19
*546 FILLER_25_3
*547 FILLER_25_31
*548 FILLER_25_43
*549 FILLER_25_55
*550 FILLER_25_57
*551 FILLER_25_69
*552 FILLER_25_81
*553 FILLER_25_89
*554 FILLER_25_95
*555 FILLER_26_107
*556 FILLER_26_119
*557 FILLER_26_131
*558 FILLER_26_139
*559 FILLER_26_141
*560 FILLER_26_15
*561 FILLER_26_153
*562 FILLER_26_157
*563 FILLER_26_27
*564 FILLER_26_29
*565 FILLER_26_3
*566 FILLER_26_41
*567 FILLER_26_53
*568 FILLER_26_65
*569 FILLER_26_77
*570 FILLER_26_83
*571 FILLER_26_85
*572 FILLER_26_95
*573 FILLER_27_104
*574 FILLER_27_119
*575 FILLER_27_143
*576 FILLER_27_155
*577 FILLER_27_163
*578 FILLER_27_19
*579 FILLER_27_27
*580 FILLER_27_3
*581 FILLER_27_42
*582 FILLER_27_54
*583 FILLER_27_79
*584 FILLER_27_87
*585 FILLER_27_9
*586 FILLER_27_97
*587 FILLER_28_144
*588 FILLER_28_163
*589 FILLER_28_175
*590 FILLER_28_24
*591 FILLER_28_66
*592 FILLER_28_85
*593 FILLER_29_105
*594 FILLER_29_11
*595 FILLER_29_111
*596 FILLER_29_113
*597 FILLER_29_118
*598 FILLER_29_125
*599 FILLER_29_132
*600 FILLER_29_139
*601 FILLER_29_141
*602 FILLER_29_153
*603 FILLER_29_16
*604 FILLER_29_165
*605 FILLER_29_169
*606 FILLER_29_177
*607 FILLER_29_29
*608 FILLER_29_3
*609 FILLER_29_41
*610 FILLER_29_49
*611 FILLER_29_55
*612 FILLER_29_63
*613 FILLER_29_69
*614 FILLER_29_76
*615 FILLER_29_83
*616 FILLER_29_85
*617 FILLER_29_90
*618 FILLER_29_97
*619 FILLER_2_109
*620 FILLER_2_121
*621 FILLER_2_133
*622 FILLER_2_139
*623 FILLER_2_141
*624 FILLER_2_15
*625 FILLER_2_153
*626 FILLER_2_161
*627 FILLER_2_27
*628 FILLER_2_29
*629 FILLER_2_3
*630 FILLER_2_41
*631 FILLER_2_53
*632 FILLER_2_65
*633 FILLER_2_77
*634 FILLER_2_83
*635 FILLER_2_85
*636 FILLER_2_97
*637 FILLER_3_103
*638 FILLER_3_110
*639 FILLER_3_113
*640 FILLER_3_125
*641 FILLER_3_137
*642 FILLER_3_149
*643 FILLER_3_15
*644 FILLER_3_161
*645 FILLER_3_167
*646 FILLER_3_169
*647 FILLER_3_177
*648 FILLER_3_27
*649 FILLER_3_3
*650 FILLER_3_39
*651 FILLER_3_51
*652 FILLER_3_55
*653 FILLER_3_60
*654 FILLER_3_91
*655 FILLER_4_118
*656 FILLER_4_144
*657 FILLER_4_15
*658 FILLER_4_156
*659 FILLER_4_168
*660 FILLER_4_176
*661 FILLER_4_27
*662 FILLER_4_29
*663 FILLER_4_3
*664 FILLER_4_41
*665 FILLER_4_67
*666 FILLER_4_82
*667 FILLER_4_85
*668 FILLER_4_93
*669 FILLER_5_106
*670 FILLER_5_113
*671 FILLER_5_128
*672 FILLER_5_140
*673 FILLER_5_15
*674 FILLER_5_152
*675 FILLER_5_164
*676 FILLER_5_169
*677 FILLER_5_177
*678 FILLER_5_27
*679 FILLER_5_3
*680 FILLER_5_39
*681 FILLER_5_51
*682 FILLER_5_55
*683 FILLER_5_66
*684 FILLER_5_83
*685 FILLER_5_95
*686 FILLER_6_108
*687 FILLER_6_117
*688 FILLER_6_129
*689 FILLER_6_137
*690 FILLER_6_141
*691 FILLER_6_148
*692 FILLER_6_15
*693 FILLER_6_160
*694 FILLER_6_172
*695 FILLER_6_27
*696 FILLER_6_29
*697 FILLER_6_3
*698 FILLER_6_33
*699 FILLER_6_45
*700 FILLER_6_49
*701 FILLER_6_55
*702 FILLER_6_67
*703 FILLER_6_79
*704 FILLER_6_83
*705 FILLER_6_85
*706 FILLER_6_96
*707 FILLER_7_119
*708 FILLER_7_131
*709 FILLER_7_15
*710 FILLER_7_155
*711 FILLER_7_167
*712 FILLER_7_169
*713 FILLER_7_177
*714 FILLER_7_3
*715 FILLER_7_42
*716 FILLER_7_53
*717 FILLER_7_57
*718 FILLER_7_72
*719 FILLER_7_84
*720 FILLER_7_96
*721 FILLER_8_100
*722 FILLER_8_106
*723 FILLER_8_118
*724 FILLER_8_128
*725 FILLER_8_141
*726 FILLER_8_153
*727 FILLER_8_165
*728 FILLER_8_177
*729 FILLER_8_18
*730 FILLER_8_26
*731 FILLER_8_29
*732 FILLER_8_3
*733 FILLER_8_38
*734 FILLER_8_52
*735 FILLER_8_61
*736 FILLER_8_73
*737 FILLER_8_83
*738 FILLER_8_88
*739 FILLER_9_113
*740 FILLER_9_125
*741 FILLER_9_137
*742 FILLER_9_166
*743 FILLER_9_172
*744 FILLER_9_23
*745 FILLER_9_35
*746 FILLER_9_47
*747 FILLER_9_55
*748 FILLER_9_57
*749 FILLER_9_69
*750 FILLER_9_75
*751 FILLER_9_79
*752 FILLER_9_83
*753 PHY_EDGE_ROW_0_Left_30
*754 PHY_EDGE_ROW_0_Right_0
*755 PHY_EDGE_ROW_10_Left_40
*756 PHY_EDGE_ROW_10_Right_10
*757 PHY_EDGE_ROW_11_Left_41
*758 PHY_EDGE_ROW_11_Right_11
*759 PHY_EDGE_ROW_12_Left_42
*760 PHY_EDGE_ROW_12_Right_12
*761 PHY_EDGE_ROW_13_Left_43
*762 PHY_EDGE_ROW_13_Right_13
*763 PHY_EDGE_ROW_14_Left_44
*764 PHY_EDGE_ROW_14_Right_14
*765 PHY_EDGE_ROW_15_Left_45
*766 PHY_EDGE_ROW_15_Right_15
*767 PHY_EDGE_ROW_16_Left_46
*768 PHY_EDGE_ROW_16_Right_16
*769 PHY_EDGE_ROW_17_Left_47
*770 PHY_EDGE_ROW_17_Right_17
*771 PHY_EDGE_ROW_18_Left_48
*772 PHY_EDGE_ROW_18_Right_18
*773 PHY_EDGE_ROW_19_Left_49
*774 PHY_EDGE_ROW_19_Right_19
*775 PHY_EDGE_ROW_1_Left_31
*776 PHY_EDGE_ROW_1_Right_1
*777 PHY_EDGE_ROW_20_Left_50
*778 PHY_EDGE_ROW_20_Right_20
*779 PHY_EDGE_ROW_21_Left_51
*780 PHY_EDGE_ROW_21_Right_21
*781 PHY_EDGE_ROW_22_Left_52
*782 PHY_EDGE_ROW_22_Right_22
*783 PHY_EDGE_ROW_23_Left_53
*784 PHY_EDGE_ROW_23_Right_23
*785 PHY_EDGE_ROW_24_Left_54
*786 PHY_EDGE_ROW_24_Right_24
*787 PHY_EDGE_ROW_25_Left_55
*788 PHY_EDGE_ROW_25_Right_25
*789 PHY_EDGE_ROW_26_Left_56
*790 PHY_EDGE_ROW_26_Right_26
*791 PHY_EDGE_ROW_27_Left_57
*792 PHY_EDGE_ROW_27_Right_27
*793 PHY_EDGE_ROW_28_Left_58
*794 PHY_EDGE_ROW_28_Right_28
*795 PHY_EDGE_ROW_29_Left_59
*796 PHY_EDGE_ROW_29_Right_29
*797 PHY_EDGE_ROW_2_Left_32
*798 PHY_EDGE_ROW_2_Right_2
*799 PHY_EDGE_ROW_3_Left_33
*800 PHY_EDGE_ROW_3_Right_3
*801 PHY_EDGE_ROW_4_Left_34
*802 PHY_EDGE_ROW_4_Right_4
*803 PHY_EDGE_ROW_5_Left_35
*804 PHY_EDGE_ROW_5_Right_5
*805 PHY_EDGE_ROW_6_Left_36
*806 PHY_EDGE_ROW_6_Right_6
*807 PHY_EDGE_ROW_7_Left_37
*808 PHY_EDGE_ROW_7_Right_7
*809 PHY_EDGE_ROW_8_Left_38
*810 PHY_EDGE_ROW_8_Right_8
*811 PHY_EDGE_ROW_9_Left_39
*812 PHY_EDGE_ROW_9_Right_9
*813 TAP_TAPCELL_ROW_0_60
*814 TAP_TAPCELL_ROW_0_61
*815 TAP_TAPCELL_ROW_0_62
*816 TAP_TAPCELL_ROW_0_63
*817 TAP_TAPCELL_ROW_0_64
*818 TAP_TAPCELL_ROW_0_65
*819 TAP_TAPCELL_ROW_10_93
*820 TAP_TAPCELL_ROW_10_94
*821 TAP_TAPCELL_ROW_10_95
*822 TAP_TAPCELL_ROW_11_96
*823 TAP_TAPCELL_ROW_11_97
*824 TAP_TAPCELL_ROW_11_98
*825 TAP_TAPCELL_ROW_12_100
*826 TAP_TAPCELL_ROW_12_101
*827 TAP_TAPCELL_ROW_12_99
*828 TAP_TAPCELL_ROW_13_102
*829 TAP_TAPCELL_ROW_13_103
*830 TAP_TAPCELL_ROW_13_104
*831 TAP_TAPCELL_ROW_14_105
*832 TAP_TAPCELL_ROW_14_106
*833 TAP_TAPCELL_ROW_14_107
*834 TAP_TAPCELL_ROW_15_108
*835 TAP_TAPCELL_ROW_15_109
*836 TAP_TAPCELL_ROW_15_110
*837 TAP_TAPCELL_ROW_16_111
*838 TAP_TAPCELL_ROW_16_112
*839 TAP_TAPCELL_ROW_16_113
*840 TAP_TAPCELL_ROW_17_114
*841 TAP_TAPCELL_ROW_17_115
*842 TAP_TAPCELL_ROW_17_116
*843 TAP_TAPCELL_ROW_18_117
*844 TAP_TAPCELL_ROW_18_118
*845 TAP_TAPCELL_ROW_18_119
*846 TAP_TAPCELL_ROW_19_120
*847 TAP_TAPCELL_ROW_19_121
*848 TAP_TAPCELL_ROW_19_122
*849 TAP_TAPCELL_ROW_1_66
*850 TAP_TAPCELL_ROW_1_67
*851 TAP_TAPCELL_ROW_1_68
*852 TAP_TAPCELL_ROW_20_123
*853 TAP_TAPCELL_ROW_20_124
*854 TAP_TAPCELL_ROW_20_125
*855 TAP_TAPCELL_ROW_21_126
*856 TAP_TAPCELL_ROW_21_127
*857 TAP_TAPCELL_ROW_21_128
*858 TAP_TAPCELL_ROW_22_129
*859 TAP_TAPCELL_ROW_22_130
*860 TAP_TAPCELL_ROW_22_131
*861 TAP_TAPCELL_ROW_23_132
*862 TAP_TAPCELL_ROW_23_133
*863 TAP_TAPCELL_ROW_23_134
*864 TAP_TAPCELL_ROW_24_135
*865 TAP_TAPCELL_ROW_24_136
*866 TAP_TAPCELL_ROW_24_137
*867 TAP_TAPCELL_ROW_25_138
*868 TAP_TAPCELL_ROW_25_139
*869 TAP_TAPCELL_ROW_25_140
*870 TAP_TAPCELL_ROW_26_141
*871 TAP_TAPCELL_ROW_26_142
*872 TAP_TAPCELL_ROW_26_143
*873 TAP_TAPCELL_ROW_27_144
*874 TAP_TAPCELL_ROW_27_145
*875 TAP_TAPCELL_ROW_27_146
*876 TAP_TAPCELL_ROW_28_147
*877 TAP_TAPCELL_ROW_28_148
*878 TAP_TAPCELL_ROW_28_149
*879 TAP_TAPCELL_ROW_29_150
*880 TAP_TAPCELL_ROW_29_151
*881 TAP_TAPCELL_ROW_29_152
*882 TAP_TAPCELL_ROW_29_153
*883 TAP_TAPCELL_ROW_29_154
*884 TAP_TAPCELL_ROW_29_155
*885 TAP_TAPCELL_ROW_2_69
*886 TAP_TAPCELL_ROW_2_70
*887 TAP_TAPCELL_ROW_2_71
*888 TAP_TAPCELL_ROW_3_72
*889 TAP_TAPCELL_ROW_3_73
*890 TAP_TAPCELL_ROW_3_74
*891 TAP_TAPCELL_ROW_4_75
*892 TAP_TAPCELL_ROW_4_76
*893 TAP_TAPCELL_ROW_4_77
*894 TAP_TAPCELL_ROW_5_78
*895 TAP_TAPCELL_ROW_5_79
*896 TAP_TAPCELL_ROW_5_80
*897 TAP_TAPCELL_ROW_6_81
*898 TAP_TAPCELL_ROW_6_82
*899 TAP_TAPCELL_ROW_6_83
*900 TAP_TAPCELL_ROW_7_84
*901 TAP_TAPCELL_ROW_7_85
*902 TAP_TAPCELL_ROW_7_86
*903 TAP_TAPCELL_ROW_8_87
*904 TAP_TAPCELL_ROW_8_88
*905 TAP_TAPCELL_ROW_8_89
*906 TAP_TAPCELL_ROW_9_90
*907 TAP_TAPCELL_ROW_9_91
*908 TAP_TAPCELL_ROW_9_92
*909 _174_
*910 _175_
*911 _176_
*912 _177_
*913 _178_
*914 _179_
*915 _180_
*916 _181_
*917 _182_
*918 _183_
*919 _184_
*920 _185_
*921 _186_
*922 _187_
*923 _188_
*924 _189_
*925 _190_
*926 _191_
*927 _192_
*928 _193_
*929 _194_
*930 _195_
*931 _196_
*932 _197_
*933 _198_
*934 _199_
*935 _200_
*936 _201_
*937 _202_
*938 _203_
*939 _204_
*940 _205_
*941 _206_
*942 _207_
*943 _208_
*944 _209_
*945 _210_
*946 _211_
*947 _212_
*948 _213_
*949 _214_
*950 _215_
*951 _216_
*952 _217_
*953 _218_
*954 _219_
*955 _220_
*956 _221_
*957 _222_
*958 _223_
*959 _224_
*960 _225_
*961 _226_
*962 _227_
*963 _228_
*964 _229_
*965 _230_
*966 _231_
*967 _232_
*968 _233_
*969 _234_
*970 _235_
*971 _236_
*972 _237_
*973 _238_
*974 _239_
*975 _240_
*976 _241_
*977 _242_
*978 _243_
*979 _244_
*980 _245_
*981 _246_
*982 _247_
*983 _248_
*984 _249_
*985 _250_
*986 _251_
*987 _252_
*988 _253_
*989 _254_
*990 _255_
*991 _256_
*992 _257_
*993 _258_
*994 _259_
*995 _260_
*996 _261_
*997 _262_
*998 _263_
*999 _264_
*1000 _265_
*1001 _266_
*1002 _267_
*1003 _268_
*1004 _269_
*1005 _270_
*1006 _271_
*1007 _272_
*1008 _273_
*1009 _274_
*1010 _275_
*1011 _276_
*1012 _277_
*1013 _278_
*1014 _279_
*1015 _280_
*1016 _281_
*1017 _282_
*1018 _283_
*1019 _284_
*1020 _285_
*1021 _286_
*1022 _287_
*1023 _288_
*1024 _289_
*1025 _290_
*1026 _291_
*1027 _292_
*1028 _293_
*1029 _294_
*1030 _295_
*1031 _296_
*1032 _297_
*1033 _298_
*1034 _299_
*1035 _300_
*1036 _301_
*1037 _302_
*1038 _303_
*1039 _304_
*1040 _305_
*1041 _306_
*1042 _307_
*1043 _308_
*1044 _309_
*1045 _310_
*1046 _311_
*1047 _312_
*1048 _313_
*1049 _314_
*1050 _315_
*1051 _316_
*1052 _317_
*1053 _318_
*1054 _319_
*1055 _320_
*1056 _321_
*1057 _322_
*1058 _323_
*1059 _324_
*1060 _325_
*1061 _326_
*1062 _327_
*1063 _328_
*1064 _329_
*1065 _330_
*1066 _331_
*1067 _332_
*1068 _333_
*1069 _334_
*1070 _335_
*1071 _336_
*1072 _337_
*1073 _338_
*1074 _339_
*1075 _340_
*1076 _341_
*1077 _342_
*1078 _343_
*1079 _344_
*1080 _345_
*1081 _346_
*1082 _347_
*1083 _348_
*1084 _349_
*1085 _350_
*1086 _351_
*1087 _352_
*1088 _353_
*1089 _354_
*1090 _355_
*1091 _356_
*1092 _357_
*1093 _358_
*1094 _359_
*1095 _360_
*1096 _361_
*1097 _362_
*1098 _363_
*1099 _364_
*1100 _365_
*1101 _366_
*1102 _367_
*1103 _368_
*1104 _369_
*1105 _370_
*1106 _371_
*1107 _372_
*1108 _373_
*1109 _374_
*1110 _375_
*1111 _376_
*1112 _377_
*1113 _378_
*1114 _379_
*1115 _380_
*1116 _381_
*1117 _382_
*1118 _383_
*1119 _384_
*1120 clkbuf_0_clk
*1121 clkbuf_2_0__f_clk
*1122 clkbuf_2_1__f_clk
*1123 clkbuf_2_2__f_clk
*1124 clkbuf_2_3__f_clk
*1125 clkload0
*1126 clkload1
*1127 clkload2
*1128 input1
*1129 input10
*1130 input11
*1131 input12
*1132 input13
*1133 input14
*1134 input15
*1135 input16
*1136 input2
*1137 input3
*1138 input4
*1139 input5
*1140 input6
*1141 input7
*1142 input8
*1143 input9
*1144 output17
*1145 output18
*1146 output19
*1147 output20
*1148 output21
*1149 output22
*1150 output23
*1151 output24
*1152 output25
*1153 output26
*1154 output27

*PORTS
addr[0] I
addr[1] I
addr[2] I
addr[3] I
addr[4] I
clk I
irq_timer O
outa O
outb O
rdata[0] O
rdata[1] O
rdata[2] O
rdata[3] O
rdata[4] O
rdata[5] O
rdata[6] O
rdata[7] O
read_en I
rst I
wdata[0] I
wdata[1] I
wdata[2] I
wdata[3] I
wdata[4] I
wdata[5] I
wdata[6] I
wdata[7] I
write_en I

*D_NET *3 0.00111254
*CONN
*P addr[0] I
*I *1128:A I *D sky130_fd_sc_hd__buf_1
*CAP
1 addr[0] 0.000556269
2 *1128:A 0.000556269
3 *1128:A rdata[3] 0
4 *1128:A *1135:A 0
5 *1128:A *1140:A 0
*RES
1 addr[0] *1128:A 24.6036 
*END

*D_NET *4 0.000488171
*CONN
*P addr[1] I
*I *1136:A I *D sky130_fd_sc_hd__buf_4
*CAP
1 addr[1] 0.000133358
2 *1136:A 0.000133358
3 *1136:A rdata[1] 7.60209e-05
4 *1136:A *1139:A 7.3448e-05
5 *1136:A *1149:A 7.19848e-05
*RES
1 addr[1] *1136:A 18.6579 
*END

*D_NET *5 0.000990337
*CONN
*P addr[2] I
*I *1137:A I *D sky130_fd_sc_hd__buf_1
*CAP
1 addr[2] 0.000495168
2 *1137:A 0.000495168
3 *1137:A irq_timer 0
*RES
1 addr[2] *1137:A 23.6571 
*END

*D_NET *6 0.000990337
*CONN
*P addr[3] I
*I *1138:A I *D sky130_fd_sc_hd__clkbuf_1
*CAP
1 addr[3] 0.000495168
2 *1138:A 0.000495168
3 *1138:A irq_timer 0
4 *1138:A rdata[3] 0
5 *1138:A *1150:A 0
*RES
1 addr[3] *1138:A 23.6571 
*END

*D_NET *7 0.000551685
*CONN
*P addr[4] I
*I *1139:A I *D sky130_fd_sc_hd__buf_1
*CAP
1 addr[4] 0.000157668
2 *1139:A 0.000157668
3 *1139:A *1142:A 6.60155e-05
4 *1139:A *1149:A 9.68857e-05
5 *1136:A *1139:A 7.3448e-05
*RES
1 addr[4] *1139:A 18.9615 
*END

*D_NET *8 0.0101412
*CONN
*P clk I
*I *1120:A I *D sky130_fd_sc_hd__clkbuf_16
*CAP
1 clk 0.0014776
2 *1120:A 0.00163818
3 *8:11 0.00311578
4 *1120:A *934:A0 9.99853e-05
5 *1120:A *934:A1 0.000272745
6 *1120:A *934:S 9.22015e-05
7 *1120:A *953:A1 5.71472e-05
8 *1120:A *953:A2 0.00022454
9 *1120:A *955:A 8.43535e-06
10 *1120:A *1008:B 2.57619e-05
11 *1120:A *1013:B 0.000284073
12 *1120:A *1024:A1 9.16074e-05
13 *1120:A *1024:B1 5.52238e-05
14 *1120:A *1029:A0 0.000399841
15 *1120:A *1084:D 5.38072e-05
16 *1120:A *1102:D 6.70624e-05
17 *1120:A *97:66 5.01338e-05
18 *1120:A *168:10 5.71472e-05
19 *1120:A *205:8 0.000653884
20 *1120:A *214:20 4.35336e-05
21 *1120:A *217:57 4.0742e-05
22 *1120:A *259:33 9.90431e-05
23 *1120:A *259:43 1.65169e-05
24 *8:11 *924:S 0
25 *8:11 *934:S 0
26 *8:11 *1110:CLK 0.000565832
27 *8:11 *1110:D 0
28 *8:11 *1133:A 0
29 *8:11 *1134:A 6.99087e-05
30 *8:11 *108:84 0
31 *8:11 *207:25 7.46814e-05
32 *8:11 *207:47 0.000505794
*RES
1 clk *8:11 36.9829 
2 *8:11 *1120:A 42.6929 
*END

*D_NET *9 0.000930923
*CONN
*P irq_timer O
*I *1144:X O *D sky130_fd_sc_hd__buf_1
*CAP
1 irq_timer 0.000465461
2 *1144:X 0.000465461
3 *1137:A irq_timer 0
4 *1138:A irq_timer 0
*RES
1 *1144:X irq_timer 23.05 
*END

*D_NET *10 0.000608335
*CONN
*P outa O
*I *1145:X O *D sky130_fd_sc_hd__buf_1
*CAP
1 outa 0.000277531
2 *1145:X 0.000277531
3 outa outb 3.55489e-05
4 outa *1145:A 1.77247e-05
*RES
1 *1145:X outa 19.1936 
*END

*D_NET *11 0.000869124
*CONN
*P outb O
*I *1146:X O *D sky130_fd_sc_hd__buf_1
*CAP
1 outb 0.000416788
2 *1146:X 0.000416788
3 outa outb 3.55489e-05
*RES
1 *1146:X outb 21.7124 
*END

*D_NET *12 0.000461662
*CONN
*P rdata[0] O
*I *1147:X O *D sky130_fd_sc_hd__buf_1
*CAP
1 rdata[0] 0.000230831
2 *1147:X 0.000230831
3 rdata[0] *931:A0 0
4 rdata[0] *1142:A 0
*RES
1 *1147:X rdata[0] 18.6579 
*END

*D_NET *13 0.000956687
*CONN
*P rdata[1] O
*I *1148:X O *D sky130_fd_sc_hd__buf_1
*CAP
1 rdata[1] 0.00034636
2 *1148:X 0.00034636
3 rdata[1] rdata[2] 7.3448e-05
4 rdata[1] *931:S 0.000114499
5 rdata[1] *1149:A 0
6 *1136:A rdata[1] 7.60209e-05
*RES
1 *1148:X rdata[1] 19.6975 
*END

*D_NET *14 0.000405913
*CONN
*P rdata[2] O
*I *1149:X O *D sky130_fd_sc_hd__buf_1
*CAP
1 rdata[2] 0.000133225
2 *1149:X 0.000133225
3 rdata[2] *1105:RESET_B 0
4 rdata[2] *1143:A 6.60155e-05
5 rdata[1] rdata[2] 7.3448e-05
*RES
1 *1149:X rdata[2] 18.0508 
*END

*D_NET *15 0.000930923
*CONN
*P rdata[3] O
*I *1150:X O *D sky130_fd_sc_hd__buf_1
*CAP
1 rdata[3] 0.000465461
2 *1150:X 0.000465461
3 *1128:A rdata[3] 0
4 *1138:A rdata[3] 0
*RES
1 *1150:X rdata[3] 23.05 
*END

*D_NET *16 0.000930923
*CONN
*P rdata[4] O
*I *1151:X O *D sky130_fd_sc_hd__buf_1
*CAP
1 rdata[4] 0.000465461
2 *1151:X 0.000465461
3 rdata[4] rdata[5] 0
4 rdata[4] rdata[6] 0
*RES
1 *1151:X rdata[4] 23.05 
*END

*D_NET *17 0.000930923
*CONN
*P rdata[5] O
*I *1152:X O *D sky130_fd_sc_hd__buf_1
*CAP
1 rdata[5] 0.000465461
2 *1152:X 0.000465461
3 rdata[5] rdata[7] 0
4 rdata[4] rdata[5] 0
*RES
1 *1152:X rdata[5] 23.05 
*END

*D_NET *18 0.000930923
*CONN
*P rdata[6] O
*I *1153:X O *D sky130_fd_sc_hd__buf_1
*CAP
1 rdata[6] 0.000465461
2 *1153:X 0.000465461
3 rdata[4] rdata[6] 0
*RES
1 *1153:X rdata[6] 23.05 
*END

*D_NET *19 0.000930923
*CONN
*P rdata[7] O
*I *1154:X O *D sky130_fd_sc_hd__buf_1
*CAP
1 rdata[7] 0.000465461
2 *1154:X 0.000465461
3 rdata[7] *1140:A 0
4 rdata[5] rdata[7] 0
*RES
1 *1154:X rdata[7] 23.05 
*END

*D_NET *20 0.00107072
*CONN
*P read_en I
*I *1140:A I *D sky130_fd_sc_hd__buf_1
*CAP
1 read_en 0.00053536
2 *1140:A 0.00053536
3 *1140:A *1135:A 0
4 *1140:A *1154:A 0
5 rdata[7] *1140:A 0
6 *1128:A *1140:A 0
*RES
1 read_en *1140:A 24.4786 
*END

*D_NET *21 0.000391681
*CONN
*P rst I
*I *1141:A I *D sky130_fd_sc_hd__buf_12
*CAP
1 rst 0.00019584
2 *1141:A 0.00019584
*RES
1 rst *1141:A 18.0508 
*END

*D_NET *22 0.000413549
*CONN
*P wdata[0] I
*I *1142:A I *D sky130_fd_sc_hd__buf_1
*CAP
1 wdata[0] 0.000162418
2 *1142:A 0.000162418
3 *1142:A *1149:A 2.26973e-05
4 rdata[0] *1142:A 0
5 *1139:A *1142:A 6.60155e-05
*RES
1 wdata[0] *1142:A 18.0508 
*END

*D_NET *23 0.000551696
*CONN
*P wdata[1] I
*I *1143:A I *D sky130_fd_sc_hd__clkbuf_1
*CAP
1 wdata[1] 0.000202763
2 *1143:A 0.000202763
3 *1143:A *1130:A 8.0154e-05
4 *1143:A *252:304 0
5 rdata[2] *1143:A 6.60155e-05
*RES
1 wdata[1] *1143:A 19.2651 
*END

*D_NET *24 0.000395776
*CONN
*P wdata[2] I
*I *1129:A I *D sky130_fd_sc_hd__clkbuf_1
*CAP
1 wdata[2] 0.000161164
2 *1129:A 0.000161164
3 *1129:A *1130:A 7.3448e-05
4 *1129:A *252:293 0
5 *1129:A *252:304 0
*RES
1 wdata[2] *1129:A 18.0508 
*END

*D_NET *25 0.000740486
*CONN
*P wdata[3] I
*I *1130:A I *D sky130_fd_sc_hd__buf_1
*CAP
1 wdata[3] 0.000268849
2 *1130:A 0.000268849
3 *1130:A *252:304 4.91861e-05
4 *1129:A *1130:A 7.3448e-05
5 *1143:A *1130:A 8.0154e-05
*RES
1 wdata[3] *1130:A 19.7848 
*END

*D_NET *26 0.00107072
*CONN
*P wdata[4] I
*I *1131:A I *D sky130_fd_sc_hd__clkbuf_1
*CAP
1 wdata[4] 0.00053536
2 *1131:A 0.00053536
3 *1131:A *1034:B1 0
*RES
1 wdata[4] *1131:A 24.4786 
*END

*D_NET *27 0.000632604
*CONN
*P wdata[5] I
*I *1132:A I *D sky130_fd_sc_hd__clkbuf_1
*CAP
1 wdata[5] 0.000316302
2 *1132:A 0.000316302
*RES
1 wdata[5] *1132:A 20.7838 
*END

*D_NET *28 0.000653607
*CONN
*P wdata[6] I
*I *1133:A I *D sky130_fd_sc_hd__clkbuf_1
*CAP
1 wdata[6] 0.000326804
2 *1133:A 0.000326804
3 *8:11 *1133:A 0
*RES
1 wdata[6] *1133:A 21.0874 
*END

*D_NET *29 0.000558489
*CONN
*P wdata[7] I
*I *1134:A I *D sky130_fd_sc_hd__clkbuf_1
*CAP
1 wdata[7] 0.00024429
2 *1134:A 0.00024429
3 *1134:A *934:S 0
4 *8:11 *1134:A 6.99087e-05
*RES
1 wdata[7] *1134:A 18.73 
*END

*D_NET *30 0.00100082
*CONN
*P write_en I
*I *1135:A I *D sky130_fd_sc_hd__clkbuf_2
*CAP
1 write_en 0.000500411
2 *1135:A 0.000500411
3 *1128:A *1135:A 0
4 *1140:A *1135:A 0
*RES
1 write_en *1135:A 23.7643 
*END

*D_NET *31 0.00057964
*CONN
*I *1087:D I *D sky130_fd_sc_hd__dfrtp_4
*I *979:X O *D sky130_fd_sc_hd__o2111a_1
*CAP
1 *1087:D 0.000227446
2 *979:X 0.000227446
3 *1087:D *979:A1 8.90314e-05
4 *1087:D *979:D1 0
5 *1087:D *991:B 3.57163e-05
*RES
1 *979:X *1087:D 31.1179 
*END

*D_NET *32 0.000420332
*CONN
*I *1088:D I *D sky130_fd_sc_hd__dfrtp_4
*I *981:X O *D sky130_fd_sc_hd__o2111a_1
*CAP
1 *1088:D 6.22051e-05
2 *981:X 6.22051e-05
3 *1088:D *1088:CLK 5.33433e-05
4 *1088:D *208:43 6.05161e-06
5 *1088:D *211:14 6.05161e-06
6 *1088:D *212:12 0.000230475
*RES
1 *981:X *1088:D 20.7786 
*END

*D_NET *33 0.000391744
*CONN
*I *1089:D I *D sky130_fd_sc_hd__dfrtp_2
*I *985:X O *D sky130_fd_sc_hd__o2111a_1
*CAP
1 *1089:D 0.000155301
2 *985:X 0.000155301
3 *1089:D *1090:CLK 7.25873e-06
4 *1089:D *208:51 7.38835e-05
5 *1089:D *213:10 0
*RES
1 *985:X *1089:D 29.908 
*END

*D_NET *34 0.000387532
*CONN
*I *1090:D I *D sky130_fd_sc_hd__dfrtp_4
*I *987:X O *D sky130_fd_sc_hd__o2111a_1
*CAP
1 *1090:D 0.000166154
2 *987:X 0.000166154
3 *1090:D *137:30 5.52238e-05
4 *1090:D *215:12 0
5 *1090:D *252:22 0
*RES
1 *987:X *1090:D 30.3857 
*END

*D_NET *35 0.000969102
*CONN
*I *1091:D I *D sky130_fd_sc_hd__dfrtp_2
*I *992:Y O *D sky130_fd_sc_hd__nor4b_1
*CAP
1 *1091:D 0.000299101
2 *992:Y 0.000299101
3 *1091:D *978:B1 0.00010096
4 *1091:D *992:A 6.74911e-05
5 *1091:D *146:8 0.000190508
6 *1091:D *226:65 1.19402e-05
*RES
1 *992:Y *1091:D 35.0464 
*END

*D_NET *36 0.000634922
*CONN
*I *1092:D I *D sky130_fd_sc_hd__dfrtp_4
*I *994:X O *D sky130_fd_sc_hd__o2111a_1
*CAP
1 *1092:D 0.000275153
2 *994:X 0.000275153
3 *1092:D *1065:A 7.88091e-05
4 *1092:D *137:40 5.80706e-06
5 *1092:D *252:30 0
*RES
1 *994:X *1092:D 32.725 
*END

*D_NET *37 0.000855287
*CONN
*I *1093:D I *D sky130_fd_sc_hd__dfrtp_4
*I *998:X O *D sky130_fd_sc_hd__o2111a_1
*CAP
1 *1093:D 0.000282622
2 *998:X 0.000282622
3 *1093:D *1092:CLK 5.74309e-05
4 *1093:D *1093:CLK 6.05161e-06
5 *1093:D *206:10 0.000117389
6 *1093:D *216:10 4.18562e-05
7 *1093:D *226:102 4.8035e-05
8 *1093:D *226:115 1.92789e-05
*RES
1 *998:X *1093:D 32.5643 
*END

*D_NET *38 0.000308158
*CONN
*I *1094:D I *D sky130_fd_sc_hd__dfrtp_2
*I *1002:X O *D sky130_fd_sc_hd__o2111a_1
*CAP
1 *1094:D 0.000154079
2 *1002:X 0.000154079
*RES
1 *1002:X *1094:D 21.1893 
*END

*D_NET *39 0.00230123
*CONN
*I *1084:D I *D sky130_fd_sc_hd__dfrtp_1
*I *1024:X O *D sky130_fd_sc_hd__o211a_1
*CAP
1 *1084:D 0.000579916
2 *1024:X 0.000579916
3 *1084:D *950:B 1.24368e-05
4 *1084:D *1082:A 0.000149235
5 *1084:D *1084:CLK 7.57394e-05
6 *1084:D *1084:RESET_B 3.18747e-05
7 *1084:D *1085:D 0.000231186
8 *1084:D *217:57 0
9 *1084:D *252:81 3.27526e-05
10 *1084:D *252:90 0.000554362
11 *1120:A *1084:D 5.38072e-05
*RES
1 *1024:X *1084:D 41.6 
*END

*D_NET *40 0.00272951
*CONN
*I *1085:D I *D sky130_fd_sc_hd__dfrtp_1
*I *1023:Y O *D sky130_fd_sc_hd__a21oi_1
*CAP
1 *1085:D 0.000581092
2 *1023:Y 0.000581092
3 *1085:D *949:B 2.23987e-05
4 *1085:D *1094:CLK 0.000314037
5 *1085:D *206:68 7.14934e-05
6 *1085:D *217:32 0.000200413
7 *1085:D *217:47 0.000331523
8 *1085:D *217:57 4.8936e-05
9 *1085:D *262:23 6.81083e-05
10 *1085:D *262:25 0.000279231
11 *1084:D *1085:D 0.000231186
*RES
1 *1023:Y *1085:D 44.7071 